  
       XFOIL         Version 6.99
  
 Calculated polar for: CLARK Y AIRFOIL                                 
  
 1 1 Reynolds number fixed          Mach number fixed         
  
 xtrf =   1.000 (top)        1.000 (bottom)  
 Mach =   0.000     Re =     0.214 e 6     Ncrit =   9.000
  
   alpha    CL        CD       CDp       CM     Top_Xtr  Bot_Xtr
  ------ -------- --------- --------- -------- -------- --------
   0.000   0.4432   0.00973   0.00438  -0.0949   0.7897   1.0000
   0.250   0.4678   0.00975   0.00428  -0.0941   0.7796   1.0000
   0.500   0.4929   0.00977   0.00419  -0.0934   0.7697   1.0000
   0.750   0.5176   0.00981   0.00413  -0.0926   0.7592   1.0000
   1.000   0.5420   0.00986   0.00411  -0.0918   0.7479   1.0000
   1.250   0.5664   0.00992   0.00409  -0.0910   0.7364   1.0000
   1.500   0.5909   0.00999   0.00408  -0.0901   0.7249   1.0000
   1.750   0.6155   0.01007   0.00409  -0.0893   0.7132   1.0000
   2.000   0.6400   0.01015   0.00410  -0.0885   0.7009   1.0000
   2.250   0.6645   0.01024   0.00412  -0.0876   0.6881   1.0000
   2.500   0.6889   0.01033   0.00415  -0.0868   0.6747   1.0000
   2.750   0.7133   0.01044   0.00419  -0.0859   0.6609   1.0000
   3.000   0.7377   0.01055   0.00423  -0.0850   0.6462   1.0000
   3.250   0.7617   0.01068   0.00429  -0.0841   0.6301   1.0000
   3.500   0.7855   0.01082   0.00438  -0.0831   0.6123   1.0000
   3.750   0.8093   0.01099   0.00445  -0.0822   0.5944   1.0000
   4.000   0.8324   0.01118   0.00458  -0.0811   0.5732   1.0000
   4.250   0.8553   0.01141   0.00472  -0.0801   0.5513   1.0000
   4.500   0.8779   0.01168   0.00488  -0.0789   0.5285   1.0000
   4.750   0.9001   0.01200   0.00507  -0.0778   0.5058   1.0000
   5.000   0.9224   0.01233   0.00531  -0.0767   0.4835   1.0000
   5.250   0.9446   0.01267   0.00555  -0.0757   0.4626   1.0000
   5.500   0.9666   0.01304   0.00580  -0.0746   0.4436   1.0000
   5.750   0.9888   0.01338   0.00609  -0.0736   0.4249   1.0000
   6.000   1.0113   0.01375   0.00638  -0.0727   0.4098   1.0000
   6.250   1.0342   0.01412   0.00672  -0.0718   0.3973   1.0000
   6.500   1.0573   0.01450   0.00707  -0.0710   0.3859   1.0000
   6.750   1.0804   0.01488   0.00744  -0.0703   0.3751   1.0000
   7.000   1.1033   0.01528   0.00782  -0.0695   0.3649   1.0000
   7.250   1.1260   0.01569   0.00822  -0.0687   0.3550   1.0000
   7.500   1.1484   0.01611   0.00863  -0.0678   0.3451   1.0000
   7.750   1.1705   0.01649   0.00906  -0.0669   0.3347   1.0000
   8.000   1.1920   0.01688   0.00950  -0.0660   0.3237   1.0000
   8.250   1.2123   0.01728   0.00993  -0.0648   0.3115   1.0000
   8.500   1.2315   0.01768   0.01035  -0.0634   0.2981   1.0000
   8.750   1.2495   0.01810   0.01078  -0.0619   0.2837   1.0000
   9.000   1.2676   0.01846   0.01123  -0.0604   0.2671   1.0000
   9.250   1.2836   0.01891   0.01169  -0.0586   0.2492   1.0000
   9.500   1.2979   0.01941   0.01220  -0.0566   0.2274   1.0000
   9.750   1.3091   0.02010   0.01282  -0.0542   0.2030   1.0000
  10.000   1.3184   0.02100   0.01362  -0.0516   0.1800   1.0000
  10.250   1.3268   0.02204   0.01457  -0.0491   0.1622   1.0000
  10.500   1.3356   0.02311   0.01560  -0.0468   0.1486   1.0000
  10.750   1.3444   0.02422   0.01668  -0.0447   0.1377   1.0000
  11.000   1.3545   0.02529   0.01777  -0.0428   0.1280   1.0000
  11.250   1.3644   0.02640   0.01891  -0.0410   0.1190   1.0000
  11.500   1.3736   0.02758   0.02011  -0.0393   0.1100   1.0000
  11.750   1.3828   0.02881   0.02137  -0.0377   0.0999   1.0000
  12.000   1.3907   0.03019   0.02277  -0.0361   0.0894   1.0000
  12.250   1.3972   0.03174   0.02432  -0.0346   0.0752   1.0000
  12.500   1.4000   0.03369   0.02620  -0.0329   0.0556   1.0000
  12.750   1.3976   0.03615   0.02858  -0.0311   0.0420   1.0000
  13.000   1.3950   0.03874   0.03117  -0.0296   0.0362   1.0000
  13.250   1.3923   0.04144   0.03391  -0.0284   0.0330   1.0000
  13.500   1.3889   0.04434   0.03688  -0.0274   0.0310   1.0000
  13.750   1.3856   0.04733   0.03999  -0.0267   0.0294   1.0000
  14.000   1.3802   0.05066   0.04341  -0.0263   0.0283   1.0000
  14.250   1.3746   0.05417   0.04704  -0.0261   0.0273   1.0000
  14.500   1.3665   0.05812   0.05108  -0.0262   0.0267   1.0000
  14.750   1.3601   0.06201   0.05510  -0.0264   0.0260   1.0000
  15.000   1.3530   0.06613   0.05934  -0.0269   0.0255   1.0000
  15.250   1.3450   0.07046   0.06376  -0.0276   0.0251   1.0000
  15.500   1.3366   0.07491   0.06827  -0.0285   0.0247   1.0000
  15.750   1.3307   0.07907   0.07253  -0.0292   0.0243   1.0000
  16.000   1.3259   0.08314   0.07671  -0.0300   0.0238   1.0000
  16.250   1.3219   0.08707   0.08071  -0.0308   0.0233   1.0000
  16.500   1.3194   0.09062   0.08426  -0.0314   0.0228   1.0000
  16.750   1.3187   0.09398   0.08768  -0.0320   0.0224   1.0000
  17.000   1.3185   0.09736   0.09116  -0.0326   0.0219   1.0000
  17.250   1.3207   0.10021   0.09405  -0.0330   0.0214   1.0000
  17.500   1.3283   0.10185   0.09564  -0.0324   0.0210   1.0000
  17.750   1.3338   0.10405   0.09790  -0.0322   0.0207   1.0000
  18.000   1.3358   0.10713   0.10112  -0.0329   0.0204   1.0000
  18.250   1.3383   0.11009   0.10421  -0.0335   0.0202   1.0000
  18.500   1.3414   0.11293   0.10716  -0.0342   0.0200   1.0000
  18.750   1.3452   0.11563   0.10995  -0.0348   0.0197   1.0000
  19.000   1.3539   0.11728   0.11163  -0.0345   0.0194   1.0000
  19.250   1.3652   0.11843   0.11277  -0.0338   0.0191   1.0000
  19.500   1.3570   0.12369   0.11826  -0.0369   0.0190   1.0000
  19.750   1.3487   0.12905   0.12384  -0.0403   0.0189   1.0000
  20.000   1.3398   0.13470   0.12970  -0.0441   0.0189   1.0000
